Version 4
SHEET 1 972 680
WIRE -112 -96 -192 -96
WIRE 48 -96 -32 -96
WIRE 176 -96 48 -96
WIRE 384 -96 256 -96
WIRE 496 -96 384 -96
WIRE 688 -96 576 -96
WIRE -192 -32 -192 -96
WIRE 48 -32 48 -96
WIRE -192 96 -192 48
WIRE 48 96 48 48
WIRE 464 144 464 80
WIRE 496 144 464 144
WIRE 592 144 560 144
WIRE 592 176 592 144
WIRE 224 192 224 144
WIRE 464 272 464 144
WIRE -240 288 -240 224
WIRE -96 288 -240 288
WIRE 384 288 384 -96
WIRE 432 288 384 288
WIRE 688 304 688 -96
WIRE 688 304 496 304
WIRE 784 304 688 304
WIRE 224 320 224 272
WIRE 432 320 224 320
WIRE -240 368 -240 288
WIRE -96 368 -96 288
WIRE 224 384 224 320
WIRE -240 512 -240 448
WIRE -96 512 -96 432
WIRE -96 512 -240 512
WIRE 224 512 224 464
WIRE 464 512 464 336
WIRE -240 544 -240 512
FLAG -192 96 0
FLAG 48 96 0
FLAG 592 176 0
FLAG 784 304 PA_3
IOPIN 784 304 Out
FLAG -240 224 Vcc
IOPIN -240 224 Out
FLAG -240 544 0
FLAG 464 80 Vcc
IOPIN 464 80 In
FLAG 224 144 Vcc
IOPIN 224 144 In
FLAG 224 512 0
FLAG 464 512 0
SYMBOL voltage -192 -48 R0
WINDOW 123 0 0 Left 0
WINDOW 39 0 0 Left 0
SYMATTR InstName Vref
SYMATTR Value 3.3
SYMBOL res -16 -112 R90
WINDOW 0 0 56 VBottom 2
WINDOW 3 32 56 VTop 2
SYMATTR InstName R1
SYMATTR Value 3.2k
SYMBOL res 64 64 R180
WINDOW 0 36 76 Left 2
WINDOW 3 36 40 Left 2
SYMATTR InstName R2
SYMATTR Value 2.2k
SYMBOL res 272 -112 R90
WINDOW 0 0 56 VBottom 2
WINDOW 3 32 56 VTop 2
SYMATTR InstName RG
SYMATTR Value 10k
SYMBOL TLV9054_X 496 304 R0
SYMATTR InstName X1
SYMBOL cap 496 160 R270
WINDOW 0 32 32 VTop 2
WINDOW 3 0 32 VBottom 2
SYMATTR InstName C1
SYMATTR Value 100n
SYMBOL res 592 -112 R90
WINDOW 0 0 56 VBottom 2
WINDOW 3 32 56 VTop 2
SYMATTR InstName RF
SYMATTR Value 50k
SYMBOL voltage -240 352 R0
WINDOW 123 0 0 Left 0
WINDOW 39 0 0 Left 0
SYMATTR InstName Vcc
SYMATTR Value 3.3
SYMBOL cap -112 368 R0
SYMATTR InstName Cbulk
SYMATTR Value 10µ
SYMBOL res 208 176 R0
WINDOW 0 -248 50 Left 2
WINDOW 3 46 54 Left 2
SYMATTR InstName Rconductive_rubber
SYMATTR Value 1k
SYMBOL res 208 368 R0
WINDOW 0 -120 55 Left 2
WINDOW 3 43 46 Left 2
SYMATTR InstName R_divider
SYMATTR Value 1k
TEXT 512 448 Left 2 !.tran 1m
